Circuit: * D:\james\Documents\GitHub\TreePower\Experiment2\7555LTSpice.asc

Direct Newton iteration for .op point succeeded.

Date: Sun Jul 28 13:44:19 2019
Total elapsed time: 0.429 seconds.

tnom = 27
temp = 27
method = modified trap
totiter = 72063
traniter = 72042
tranpoints = 26061
accept = 24008
rejected = 2053
matrix size = 15
fillins = 0
solver = Normal
Matrix Compiler1: 514 bytes object code size  0.1/0.1/[0.1]
Matrix Compiler2: 883 bytes object code size  0.1/0.1/[0.1]

